Circuit: * C:\Users\User\Documents\LTspiceXVII\Circuito.asc


Date: Tue Dec 12 01:55:47 2023
Total elapsed time: 0.160 seconds.

tnom = 27
temp = 27
method = trap
totiter = 0
traniter = 0
tranpoints = 0
accept = 0
rejected = 0
matrix size = 3
fillins = 0
solver = Normal

