Circuit: * C:\Users\User\Documents\LTspiceXVII\Circuito_Desnormalizado.asc


Date: Tue Dec 12 01:46:27 2023
Total elapsed time: 0.041 seconds.

tnom = 27
temp = 27
method = trap
totiter = 0
traniter = 0
tranpoints = 0
accept = 0
rejected = 0
matrix size = 3
fillins = 0
solver = Normal

